23
-45.01291849
C          3.36150        1.14860       -0.08850
C          3.25040       -0.21280       -0.05650
C          1.98400       -0.82620        0.01080
C          1.87890       -2.23410        0.01460
C          0.66480       -2.85930        0.03460
C         -0.50270       -2.08520        0.04190
C         -0.43260       -0.72140        0.05850
C          0.79890       -0.02700        0.05880
C          0.95740        1.38890        0.07250
C          2.21610        1.94250       -0.01980
H          2.29140        3.01840       -0.02670
O         -0.08470        2.26170        0.12180
H         -0.81980        1.92260        0.68830
S         -2.02520        0.08400        0.04200
O         -2.09980        1.02040        1.14270
O         -3.05930       -0.88230       -0.07340
O         -1.99470        0.91620       -1.32250
H         -1.45320        1.71560       -1.23580
H         -1.47810       -2.54280        0.02800
H          0.59330       -3.93550        0.03350
H          2.79180       -2.81090       -0.00740
H          4.12730       -0.84100       -0.09110
H          4.32930        1.62160       -0.15280
