# ORCA input file
# -34.20554357
! wB97X-D3 def2-SVP Opt
* xyz 0 2
   C        0.29270         2.26750        -0.00020
   C        0.99520         0.97310         0.00010
   N        2.31490         0.90860         0.00010
   C        2.98800        -0.21990         0.00010
   C        2.37250        -1.45890        -0.00000
   C        0.97680        -1.45240        -0.00010
   C        0.33380        -0.24890         0.00000
   S       -1.54230        -0.18080         0.00000
   O       -1.85480        -1.58430         0.00030
   O       -1.77030         0.53740        -1.22890
   O       -1.77030         0.53800         1.22860
   H        0.40510        -2.36760        -0.00020
   H        2.93650        -2.37730        -0.00010
   H        4.06520        -0.11940         0.00010
   H        1.00060         3.09100         0.00010
   H       -0.35960         2.31830         0.87150
   H       -0.35890         2.31840        -0.87230
*
