18
-38.14268146
C          3.49610        1.62450       -0.00820
C          2.41430        0.59370        0.00830
C          2.69210       -0.76790        0.00460
C          1.68660       -1.71680       -0.00020
C          0.35730       -1.30820       -0.00140
C          0.10140        0.04030        0.00060
C          1.07320        0.99530        0.00610
H          0.80240        2.03870        0.00760
S         -1.71510        0.51900       -0.00020
O         -2.10140       -0.10790        1.23520
O         -2.10240       -0.10290       -1.23760
O         -1.61650        1.95300        0.00280
F         -0.61840       -2.20560       -0.00350
H          1.90200       -2.77430       -0.00110
H          3.72070       -1.09720        0.00650
H          4.43110        1.20840        0.35680
H          3.22420        2.47990        0.60430
H          3.65360        1.97920       -1.02640
