# ORCA input file
# -52.24022524
! wB97X-D3 def2-SVP Opt
* xyz 0 1
   C       -5.05580        -1.35530         0.20080
   H       -5.94290        -1.51270         0.81210
   O       -4.32020        -0.34640         0.85190
   C       -3.13850         0.04870         0.31470
   C       -2.59020        -0.44750        -0.86340
   C       -1.37270         0.03130        -1.31410
   C       -0.68700         1.01120        -0.61390
   C       -1.23860         1.50600         0.56490
   C       -2.44660         1.03380         1.02450
   H       -2.88210         1.40790         1.93720
   H       -0.70960         2.26360         1.12430
   C        0.64890         1.50470        -1.08490
   H        0.71500         2.59330        -1.03820
   H        0.86210         1.16500        -2.10200
   O        1.73740         1.07880        -0.21800
   C        2.06660        -0.22080        -0.23060
   F        1.06970        -1.02680         0.24130
   F        2.30290        -0.67920        -1.49170
   C        3.34590        -0.44530         0.65430
   O        3.89150        -1.49910         0.71100
   O        3.72350         0.63920         1.30790
   H        3.15030         1.40170         1.11010
   H       -0.95300        -0.37190        -2.22420
   H       -3.09420        -1.21060        -1.43440
   H       -4.48840        -2.28890         0.13930
   H       -5.35990        -1.04550        -0.80410
*
