31
-46.02442726
C         -3.78990       -0.55050        0.19030
C         -2.97140       -1.08830       -0.78800
C         -1.77730       -0.46830       -1.11470
C         -1.39820        0.70060       -0.46940
C         -2.22140        1.23380        0.51430
C         -3.41150        0.61060        0.84340
H         -4.04500        1.03100        1.61060
H         -1.92160        2.13720        1.02500
C         -0.08640        1.36440       -0.78890
O          0.75060        1.22560        0.35130
C          2.02340        1.82470        0.24750
C          3.03460        0.96830       -0.52090
C          3.05960       -0.45390        0.04590
C          1.77640       -1.17560       -0.30750
O          1.39910       -1.30030       -1.44820
C          1.00340       -1.77850        0.85600
O          1.08270       -1.03100        2.03800
H          0.76730       -0.13900        1.82570
H          1.44610       -2.75770        1.07430
H         -0.03890       -1.93310        0.54320
H          3.88000       -1.00790       -0.41580
H          3.19630       -0.43920        1.12700
H          4.01850        1.43090       -0.43660
H          2.76520        0.92170       -1.57780
H          2.36190        1.94690        1.28150
H          1.93990        2.81780       -0.21500
H          0.36990        0.89120       -1.66680
H         -0.23340        2.43540       -1.00040
H         -1.12940       -0.89620       -1.86530
H         -3.26020       -1.99690       -1.29560
H         -4.71980       -1.03670        0.44630
