21
-34.38548412
C         -2.23930       -0.18520       -0.92060
C         -2.35240       -0.05910        0.42930
O         -1.26490       -0.54640        1.04590
C         -0.42150       -0.97970        0.08070
C         -0.98530       -0.79520       -1.14920
H         -0.54670       -1.04930       -2.09230
C          0.88270       -1.59310        0.48690
O          1.98370       -1.14170       -0.27130
C          2.47400        0.13570        0.05160
C          1.61350        1.30370       -0.44790
C          0.42680        1.61120        0.42210
O         -0.61220        2.07820        0.04490
H          0.61210        1.43180        1.50170
H          2.23240        2.20640       -0.43860
H          1.28770        1.12770       -1.47380
H          3.45210        0.17720       -0.43480
H          2.61730        0.22490        1.14030
H          0.85700       -2.67560        0.31640
H          1.04250       -1.40970        1.55960
H         -3.12590        0.34720        1.04920
H         -2.95130        0.12150       -1.65810
