46
-60.40640231
C          4.04800        0.81750       -1.95900
C          4.64630        1.13440       -0.59380
C          3.80710        0.57210        0.55160
N          2.49150        1.18460        0.57810
H          2.58870        2.19220        0.67030
C          1.62300        0.67860        1.62920
H          1.71920       -0.41170        1.63770
C          0.14600        1.03880        1.39330
C         -0.07050        2.55100        1.38590
H         -1.13260        2.78090        1.40680
H          0.34520        2.98780        0.48120
H          0.40140        3.00730        2.25430
H         -0.40480        0.60050        2.22920
C         -0.36340        0.40910        0.06630
C         -0.12670       -1.10350        0.09480
C          0.70580       -1.70060       -0.84200
C          0.93320       -3.06520       -0.81670
C          0.32660       -3.85440        0.14380
C         -0.51850       -3.26940        1.07180
C         -0.74590       -1.90570        1.04610
H         -1.41830       -1.46860        1.76860
H         -1.00570       -3.87920        1.81890
H          0.50420       -4.91970        0.16630
H          1.58660       -3.51300       -1.55190
H          1.17130       -1.09020       -1.60070
C         -1.85690        0.60150       -0.16350
C         -2.78700        0.71020        0.86230
C         -4.13640        0.83370        0.57830
C         -4.57900        0.84820       -0.73210
C         -3.65940        0.73740       -1.76040
C         -2.31270        0.61110       -1.47660
H         -1.59220        0.52860       -2.27440
H         -3.99250        0.74630       -2.78810
H         -5.63280        0.94540       -0.94880
H         -4.84520        0.92050        1.38950
H         -2.47810        0.70780        1.89680
O          0.30990        1.00460       -1.01970
H          1.25030        1.04820       -0.75140
H          1.92380        1.04310        2.62680
H          4.34710        0.71280        1.50460
H          3.66410       -0.50370        0.40640
H          5.64920        0.70810       -0.52600
H          4.73710        2.21710       -0.47620
H          3.06620        1.27090       -2.06320
H          4.68980        1.19890       -2.74970
H          3.94770       -0.25790       -2.08610
