# ORCA input file
# -45.43827810
! wB97X-D3 def2-SVP Opt
* xyz 0 2
   C        0.27920         1.25110         2.02910
   H        0.92860         2.12100         2.10370
   H        0.69560         0.45890         2.64480
   H       -0.71010         1.51240         2.40140
   C        0.21570         0.81410         0.55370
   C        1.56530         0.21230         0.17340
   C        2.48760         0.95560        -0.54910
   C        3.71840         0.41600        -0.87920
   C        4.04300        -0.87040        -0.48720
   C        3.12760        -1.61570         0.23650
   C        1.89620        -1.07890         0.56440
   H        1.18620        -1.67420         1.12040
   H        3.37140        -2.62180         0.54560
   H        5.00360        -1.29210        -0.74450
   H        4.42650         1.00530        -1.44380
   H        2.23130         1.95760        -0.85410
   C       -0.86260        -0.21190         0.29050
   C       -1.32600        -1.12300         1.22840
   C       -2.14940        -2.17100         0.86150
   C       -2.45420        -2.38800        -0.49590
   C       -2.01370        -1.52000        -1.44830
   C       -1.34660        -0.31200        -1.07660
   H       -0.75300         0.18220        -1.83780
   H       -2.20070        -1.70480        -2.49600
   H       -2.99920        -3.27720        -0.77590
   H       -2.50610        -2.86310         1.60770
   H       -1.01790        -1.03580         2.26050
   O        0.01910         1.93950        -0.29000
   C       -1.28880         2.48820        -0.22870
   H       -1.39550         3.11820         0.66950
   H       -1.34840         3.16360        -1.08900
   *       -2.70680         1.13320        -0.31280
*
