# ORCA input file
# -44.85230415
! wB97X-D3 def2-SVP Opt
* xyz 0 1
   C       -3.42500        -1.62020        -0.11640
   C       -2.97220        -1.05690         1.06300
   C       -1.86010        -0.23160         1.06440
   C       -1.18620         0.04340        -0.11980
   C       -1.64840        -0.52800        -1.29970
   C       -2.75850        -1.35160        -1.29960
   H       -3.10340        -1.78580        -2.22650
   H       -1.13270        -0.30870        -2.22170
   C        0.05600         0.91740        -0.17870
   C        1.29170         0.05760        -0.00370
   N        2.27860         0.32060        -0.85170
   C        3.41030        -0.35380        -0.74930
   C        3.62320        -1.33090         0.20740
   C        2.59270        -1.61030         1.09410
   C        1.40630        -0.90700         0.99260
   H        0.58230        -1.10780         1.65830
   H        2.71360        -2.36910         1.85360
   H        4.56200        -1.85930         0.25640
   H        4.17310        -0.09230        -1.47130
   O        0.09680         1.57810        -1.42670
   H        1.01710         1.52040        -1.73200
   C        0.08140         2.01950         0.93090
   N       -1.02970         2.93690         0.86060
   H       -1.05680         3.34330        -0.07010
   H       -1.90430         2.43770         0.99400
   H        0.11610         1.56460         1.92270
   H        1.00060         2.59600         0.78980
   H       -1.53210         0.19550         2.00050
   H       -3.48650        -1.25780         1.99180
   H       -4.29290        -2.26300        -0.11300
*
