33
-44.79147846
C          2.24850        2.75090        0.38280
H          2.97370        1.99580        0.67500
H          2.40150        2.98850       -0.66600
C          0.82830        2.24360        0.59770
H          0.69910        1.93190        1.63540
H          0.12480        3.05430        0.39330
C          0.48880        1.05690       -0.32400
N          0.60180        1.51330       -1.71020
H         -0.01710        2.30320       -1.86000
H          0.32010        0.77250       -2.34350
C         -0.91270        0.53320       -0.06780
C         -1.89240        1.13200        0.65530
S         -3.37100        0.24320        0.62780
C         -2.66310       -0.97310       -0.39020
C         -1.36970       -0.67550       -0.66790
H         -0.73740       -1.30250       -1.27350
C         -3.46240       -2.14460       -0.83630
H         -4.33010       -1.82260       -1.41200
H         -2.85090       -2.79660       -1.45580
H         -3.82380       -2.71190        0.02100
H         -1.85830        2.04150        1.22000
C          1.47560       -0.06850       -0.06780
C          2.52880       -0.31920       -0.93590
C          3.42500       -1.34100       -0.67420
C          3.28150       -2.12140        0.45950
C          2.23750       -1.87150        1.33440
C          1.34130       -0.85180        1.07250
H          0.52620       -0.66420        1.75720
H          2.12040       -2.47380        2.22370
H          3.98050       -2.91950        0.66300
H          4.24040       -1.52650       -1.35850
H          2.64450        0.29820       -1.81270
H          2.41970        3.64560        0.97700
