# ORCA input file
# -42.93174287
! wB97X-D3 def2-SVP Opt
* xyz 0 1
   C        3.35210         0.93580         0.71940
   C        1.96940         0.96530         0.75650
   C        1.25260         0.02060         0.02470
   C        1.98620        -0.91080        -0.71310
   N        3.30330        -0.94080        -0.74650
   C        3.97170        -0.04070        -0.04570
   H        5.05000        -0.10940        -0.10410
   H        1.48750        -1.66040        -1.31290
   C       -0.21630         0.00890         0.01740
   C       -0.97310         1.16900        -0.15090
   C       -2.35010         1.18130        -0.17930
   C       -3.05910        -0.01150        -0.02130
   C       -2.33700        -1.19380         0.15530
   C       -0.96000        -1.16220         0.16690
   F       -0.31210        -2.32880         0.35880
   H       -2.84410        -2.13620         0.28840
   N       -4.42600        -0.01260         0.02350
   H       -4.89760        -0.89330        -0.08960
   H       -4.90730         0.79690        -0.32820
   H       -2.86690         2.11690        -0.32310
   F       -0.33630         2.34560        -0.32750
   H        1.45110         1.70310         1.35140
   H        3.93520         1.65270         1.27640
*
