# ORCA input file
# -49.36646482
! wB97X-D3 def2-SVP Opt
* xyz 0 1
   C       -5.49060        -0.70910         0.92850
   C       -4.88010        -1.28650        -0.33950
   H       -5.18490        -0.69630        -1.21110
   H       -5.18090        -2.32640        -0.48410
   O       -3.44870        -1.33730        -0.28110
   C       -2.83920        -0.17490        -0.19970
   C       -1.62630         0.45680        -0.12360
   C       -2.81020         1.25270        -0.12830
   O       -3.39510         2.30310        -0.08950
   C       -0.20570         0.29850        -0.07540
   C        0.37410        -0.97160        -0.11390
   C        1.74400        -1.10990        -0.06780
   C        2.58880        -0.00220         0.01750
   C        2.00040         1.25850         0.05550
   C        0.62850         1.41240         0.01020
   H        0.18840         2.39800         0.04050
   H        2.60980         2.14480         0.12120
   C        4.09300        -0.21380         0.06480
   C        4.43910        -1.06230         1.29700
   H        3.96440        -2.03860         1.25400
   H        4.10690        -0.56120         2.20390
   H        5.51520        -1.20970         1.35850
   C        4.87320         1.10040         0.15630
   H        4.61600         1.64700         1.06050
   H        4.68270         1.73050        -0.70930
   H        5.93960         0.88610         0.18640
   C        4.53470        -0.94440        -1.21150
   H        5.61300        -1.08850        -1.20500
   H        4.06240        -1.91900        -1.29600
   H        4.27000        -0.35970        -2.09010
   H        2.16190        -2.10500        -0.09950
   H       -0.26310        -1.84130        -0.18030
   H       -6.57350        -0.76530         0.86730
   H       -5.15620        -1.27050         1.79830
   H       -5.20230         0.33280         1.04880
*
