21
-36.72649503
C         -3.87530        0.52470       -0.04830
H         -4.71850       -0.15960       -0.11560
O         -2.71610       -0.26790       -0.05330
C         -1.53950        0.50110        0.02970
C         -0.32850       -0.38430        0.02290
C         -0.49920       -1.76550        0.02350
C          0.58000       -2.62860        0.01570
C          1.87520       -2.13060        0.00450
C          2.07290       -0.76730       -0.00010
C          0.98500        0.10570        0.00980
N          1.28750        1.51120        0.00430
O          0.37540        2.30400        0.13980
O          2.44830        1.83790       -0.13560
H          3.06650       -0.34550       -0.00920
H          2.72090       -2.80020       -0.00020
H          0.41120       -3.69470        0.01880
H         -1.50690       -2.14660        0.02900
H         -1.54600        1.10840        0.94990
H         -1.48970        1.21110       -0.81210
H         -3.89200        1.21170       -0.90310
H         -3.95240        1.11190        0.87480
