40
-52.77852112
C          0.23560        2.46070       -0.80070
C          1.71330        2.09180       -0.80670
C          2.22860        1.81020        0.60260
C          3.63010        1.19220        0.59470
O          3.74470       -0.03320       -0.09260
C          3.13410       -1.14790        0.52810
C          1.67280       -1.29050        0.18680
C          0.67850       -1.29450        1.14810
N         -0.61700       -1.34630        0.87270
C         -0.99050       -1.40510       -0.39570
C         -0.06970       -1.43910       -1.45310
C          1.26950       -1.37810       -1.14840
H          2.01710       -1.38720       -1.92810
H         -0.43100       -1.50310       -2.46610
O         -2.29460       -1.44340       -0.70700
C         -3.22440       -1.32870        0.36140
C         -3.32820        0.10050        0.89240
C         -3.75390        1.08690       -0.19280
C         -3.78760        2.51740        0.32920
H         -4.48780        2.60510        1.15740
H         -4.09610        3.20350       -0.45600
H         -2.80280        2.81850        0.67960
H         -3.05540        1.02070       -1.02940
H         -4.74300        0.80910       -0.56450
H         -2.35720        0.39170        1.29650
H         -4.05130        0.10900        1.70990
H         -2.93340       -2.00660        1.17040
H         -4.17640       -1.64930       -0.06890
H          0.91650       -1.24490        2.20420
H          3.68150       -2.01820        0.14750
H          3.26580       -1.09960        1.61840
H          4.32350        1.85910        0.07420
H          3.97630        1.06710        1.63320
H          2.27150        2.73770        1.17780
H          1.53760        1.13530        1.11060
H          2.29640        2.90180       -1.25040
H          1.86150        1.20140       -1.42000
H         -0.35720        1.63750       -0.40660
H         -0.10990        2.67850       -1.80850
H          0.06190        3.33800       -0.18050
