24
SCF done        -48.376121248309          0.000562413356
C          0.94150       -0.60130        0.46240
C          5.05820       -3.05390       -0.19180
C          3.75320       -3.86260       -0.04380
C          3.10570        0.68170        0.19040
C          5.23150       -0.44310       -0.14590
C          2.41870       -0.52450        0.25000
C          4.55830       -1.64330       -0.08470
C          4.47620        0.71290       -0.00810
C          3.17940       -1.68120        0.10910
C          5.67300        2.40530        1.01210
F          4.81420        2.52290        2.04490
F          6.66330        1.61480        1.47660
F          6.20730        3.60720        0.81940
O          2.67810       -2.93790        0.14260
O          5.11970        1.97970       -0.09910
H          0.49750        0.38960        0.46630
H          0.72710       -1.09100        1.41120
H          0.48340       -1.19990       -0.32280
H          5.54430       -3.23620       -1.15080
H          5.77240       -3.28450        0.59980
H          3.77270       -4.52900        0.82330
H          3.53040       -4.45630       -0.93530
H          2.57050        1.61230        0.29580
H          6.29800       -0.39490       -0.29420
