# ORCA input file
# -44.39047160
! wB97X-D3 def2-SVP Opt
* xyz 0 1
   C        1.78470        -2.34980        -0.79400
   C        1.87910        -2.35060         0.70580
   C        2.37150        -1.17320        -0.07750
   N        1.69340         0.09200        -0.03420
   C        2.43080         1.23480        -0.07440
   O        3.64310         1.22280        -0.15040
   C        1.62370         2.51350        -0.01910
   H        0.94080         2.56740        -0.86380
   H        1.04020         2.55500         0.89770
   H        2.30850         3.35620        -0.05230
   C        0.27610         0.09850         0.05600
   C       -0.35010         0.09020         1.29950
   C       -1.72480         0.07390         1.38430
   C       -2.50800         0.06540         0.22730
   C       -1.88250         0.07750        -1.01530
   C       -0.50020         0.09370        -1.09330
   H       -0.01770         0.10630        -2.05980
   H       -2.45700         0.07340        -1.92790
   O       -3.85200         0.04720         0.42420
   C       -4.70060         0.03990        -0.69880
   H       -5.71390         0.02580        -0.30110
   H       -4.56540         0.93740        -1.31080
   H       -4.54270        -0.85010        -1.31640
   H       -2.22460         0.06620         2.33980
   H        0.25060         0.10010         2.19700
   H        3.43910        -1.00610        -0.14470
   H        0.95900        -2.24890         1.26080
   H        2.61000        -2.98580         1.18120
   H        0.80210        -2.24730        -1.22880
   H        2.44980        -2.98450        -1.35850
*
