# ORCA input file
# -41.25998510
! wB97X-D3 def2-SVP Opt
* xyz 0 1
   C       -3.82700        -0.65010         0.27530
   C       -3.26950         0.47120         0.86590
   C       -1.94010         0.78890         0.66250
   C       -1.14330        -0.01680        -0.14920
   C       -1.70850        -1.14400        -0.74400
   C       -3.03910        -1.45360        -0.52930
   H       -3.46060        -2.33040        -0.99890
   H       -1.11970        -1.78180        -1.38420
   N        0.21060         0.28230        -0.35910
   C        0.80340         1.49860        -0.19340
   O        0.27570         2.52520         0.16410
   C        2.27290         1.35200        -0.56780
   C        2.51820        -0.15170        -0.54260
   C        2.97950        -0.61680         0.84680
   O        3.10400        -2.01420         0.93300
   H        3.79550        -2.30720         0.32890
   H        3.92720        -0.12340         1.10460
   H        2.23130        -0.34170         1.59410
   H        3.25390        -0.46920        -1.28710
   C        1.13120        -0.72350        -0.85710
   H        0.99950        -0.86640        -1.93680
   H        0.97380        -1.67630        -0.34500
   H        2.41250         1.76950        -1.56690
   H        2.90050         1.91130         0.12420
   H       -1.51820         1.66540         1.12350
   H       -3.87310         1.10610         1.49730
   H       -4.86540        -0.89530         0.43950
*
