# ORCA input file
# -47.11556963
! wB97X-D3 def2-SVP Opt
* xyz 0 1
   C        4.21410        -1.28550        -0.34050
   C        3.83420        -0.15530        -1.04410
   C        2.61080         0.44350        -0.81010
   C        1.74590        -0.08290         0.14750
   C        2.13240        -1.21910         0.85660
   C        3.35720        -1.81200         0.60960
   H        3.64140        -2.69110         1.16900
   H        1.48820        -1.64210         1.61130
   N        0.49350         0.50290         0.39100
   C        0.13830         1.79220         0.11700
   O        0.82130         2.63930        -0.40740
   C       -1.29150         1.98970         0.60420
   H       -1.86190         2.59890        -0.09460
   H       -1.25940         2.50850         1.56330
   C       -1.83690         0.57370         0.75510
   N       -2.46850         0.14810        -0.47080
   C       -3.42100        -0.83100        -0.53390
   N       -3.91130        -1.36690        -1.56800
   H       -3.53110        -1.04260        -2.44800
   O       -3.88800        -1.20860         0.67350
   H       -4.59530        -1.84690         0.50840
   H       -1.96290         0.33440        -1.32370
   H       -2.57730         0.47270         1.54960
   C       -0.56100        -0.23300         1.06450
   H       -0.62750        -1.25270         0.67750
   H       -0.38520        -0.27050         2.14580
   H        2.32820         1.32540        -1.35910
   H        4.49370         0.26550        -1.78830
   H        5.16940        -1.75110        -0.52920
*
