# ORCA input file
# -42.26205387
! wB97X-D3 def2-SVP Opt
* xyz 0 1
   C        2.50290         2.29360         0.30420
   C        1.01830         2.15810        -0.01220
   H        0.72850         2.86400        -0.79480
   H        0.42270         2.36320         0.88900
   O        0.65160         0.89020        -0.53400
   C        0.63140        -0.16690         0.37930
   O        1.88800        -0.71210         0.64190
   C        2.59670        -1.21740        -0.48490
   C        4.06840        -1.32060        -0.11840
   H        4.62490        -1.74400        -0.94990
   H        4.46930        -0.33850         0.11630
   H        4.18590        -1.95900         0.75270
   H        2.20700        -2.20980        -0.75140
   H        2.45530        -0.54150        -1.33650
   C       -0.37070        -1.21070        -0.17650
   C       -1.73120        -0.63310        -0.16700
   O       -2.43630        -0.58420         0.96850
   C       -2.49900        -0.02470        -1.13160
   N       -3.64390         0.36250        -0.52540
   N       -3.62170         0.04760         0.68050
   H       -2.30460         0.14800        -2.16730
   H       -0.32720        -2.09690         0.45740
   H       -0.09180        -1.45700        -1.20000
   H        0.28250         0.17860         1.36750
   H        2.79380         1.57650         1.06770
   H        2.70400         3.29870         0.66530
   H        3.09450         2.11500        -0.59040
*
