# ORCA input file
# -32.24236961
! wB97X-D3 def2-SVP Opt
* xyz 0 1
   C       -3.03220        -0.69490        -0.68130
   C       -2.35860         0.06170         0.46090
   H       -2.93940        -0.05810         1.37890
   O       -1.07850        -0.45380         0.80180
   C       -0.03420        -0.17720        -0.10010
   C        0.43310         1.28940        -0.14760
   O       -0.27510         2.26330        -0.20840
   C        1.90180         1.25380        -0.11340
   C        2.34290         0.01910         0.11590
   C        1.22800        -0.96170         0.32170
   O        1.45890        -2.14120        -0.40260
   H        0.74660        -2.76210        -0.21510
   H        1.13680        -1.18260         1.39840
   H        3.36630        -0.30970         0.16100
   H        2.49670         2.13920        -0.25250
   H       -0.30140        -0.46950        -1.12870
   H       -2.28840         1.12730         0.22440
   H       -4.05600        -0.34720        -0.78500
   H       -3.04250        -1.76230        -0.47160
   H       -2.51870        -0.52620        -1.62510
*
