# ORCA input file
# -47.00816256
! wB97X-D3 def2-SVP Opt
* xyz 0 1
   C        2.05690         1.64620         1.27240
   H        3.08590         1.47580         1.58030
   H        1.84360         2.71050         1.32780
   H        1.38880         1.12780         1.95610
   C        1.85810         1.15990        -0.16400
   C        2.59000         2.06230        -1.15420
   H        3.64890         2.08420        -0.91250
   H        2.19070         3.07180        -1.11270
   H        2.47610         1.67370        -2.16250
   O        2.37250        -0.14560        -0.38480
   C        1.78430        -1.20430         0.32260
   C        0.34660        -1.57260        -0.12060
   C       -0.63150        -0.58260         0.50100
   O       -0.59220        -0.25780         1.66380
   O       -1.56600        -0.16950        -0.35070
   C       -2.58110         0.71590         0.15250
   C       -2.06810         2.15200         0.14790
   H       -1.21250         2.24450         0.81260
   H       -1.77010         2.43880        -0.85840
   H       -2.85080         2.82250         0.49140
   C       -3.80170         0.53780        -0.73830
   H       -4.61450         1.16200        -0.37880
   H       -4.12430        -0.50010        -0.73320
   H       -3.55850         0.82120        -1.75910
   H       -2.80620         0.41390         1.18390
   C        0.24870        -1.62680        -1.64210
   H        0.94790        -2.36840        -2.02160
   H       -0.75730        -1.89560        -1.95240
   H        0.50280        -0.66500        -2.07820
   C       -0.01110        -2.93670         0.48700
   H        0.05290        -2.89430         1.57190
   H        0.67340        -3.69920         0.12310
   H       -1.02460        -3.21810         0.20850
   H        1.77710        -1.01510         1.40320
   H        2.43930        -2.05640         0.12100
   H        0.78140         1.17280        -0.39790
*
