# ORCA input file
# -46.46425335
! wB97X-D3 def2-SVP Opt
* xyz 0 1
   C       -3.17090        -2.51810        -1.42830
   H       -3.42620        -3.31760        -0.73550
   C       -2.26120        -1.49820        -0.75580
   C       -2.91950        -0.86780         0.46860
   H       -3.13770        -1.63870         1.21060
   H       -3.85880        -0.39740         0.17330
   C       -2.02730         0.19060         1.10870
   O       -1.94470         1.29930         0.23650
   C       -1.20120         2.38560         0.73540
   C        0.30950         2.13450         0.78270
   H        0.51570         1.31080         1.46640
   H        0.79940         3.02880         1.17060
   C        0.86870         1.77270        -0.59900
   C        1.32280         3.01300        -1.36190
   H        2.15080         3.49510        -0.84530
   H        0.50690         3.72630        -1.44730
   H        1.65220         2.74940        -2.36480
   C        2.01880         0.76870        -0.46250
   N        1.52990        -0.45120         0.14850
   H        0.83000        -0.87310        -0.45550
   C        2.52560        -1.44260         0.51220
   C        1.84400        -2.50400         1.37560
   H        2.57580        -3.20760         1.76350
   H        1.33250        -2.03180         2.21000
   H        1.11140        -3.05420         0.78840
   C        3.22350        -2.10160        -0.68580
   H        2.49040        -2.59580        -1.32190
   H        3.75570        -1.36140        -1.27880
   H        3.94000        -2.84350        -0.34270
   H        3.27950        -0.92380         1.11810
   H        2.47010         0.60670        -1.45650
   H        2.79270         1.18350         0.19170
   H        0.06540         1.28580        -1.16290
   H       -1.42250         3.21050         0.05220
   H       -1.56110         2.65790         1.74050
   H       -2.45410         0.51410         2.07250
   H       -1.03060        -0.23090         1.29620
   H       -2.01110        -0.70470        -1.46140
   H       -1.33270        -1.98600        -0.44830
   H       -4.09300        -2.04600        -1.75960
   H       -2.68110        -2.95800        -2.29430
*
