30
-50.55113560
C         -3.73460       -1.22870       -1.23760
C         -3.06360       -0.17840       -0.42980
C         -2.06290       -0.25130        0.52400
C         -1.84590        1.08490        0.93880
N         -2.65460        1.90280        0.28880
N         -3.37070        1.13780       -0.53530
H         -4.06890        1.55660       -1.12780
C         -0.87480        1.57000        1.95600
H         -1.11870        1.17200        2.94130
H          0.13800        1.25800        1.69810
H         -0.91310        2.65420        1.99670
N         -1.43460       -1.41480        1.00160
H         -0.92530       -1.19860        1.85320
C         -0.54770       -2.08290        0.05150
C          0.63910       -1.21180       -0.27210
C          1.79140       -1.28600        0.50120
C          2.82980       -0.40020        0.28640
C          2.72400        0.57910       -0.69310
C          1.57880        0.66420       -1.46370
C          0.54520       -0.22980       -1.25250
H         -0.34710       -0.16010       -1.85480
H          1.51170        1.43160       -2.21790
F          3.73220        1.44450       -0.89900
F          3.94170       -0.49240        1.03780
H          1.89590       -2.03270        1.27380
H         -0.22640       -3.02450        0.50320
H         -1.12120       -2.29950       -0.85120
H         -3.25460       -1.34690       -2.21110
H         -3.68610       -2.17800       -0.71040
H         -4.77850       -0.96950       -1.40500
