36
-47.96059915
C         -4.42710       -0.52300       -0.01440
C         -2.92990       -0.40290       -0.01270
C         -2.13450       -1.53080       -0.08100
C         -0.74770       -1.47530       -0.09250
C         -0.13390       -0.22340        0.00970
C         -0.91480        0.93400        0.08780
C         -2.31110        0.85080        0.05080
N         -3.07930        2.00470        0.15950
H         -4.02850        1.91200       -0.16490
H         -2.63200        2.84660       -0.16560
C         -0.26360        2.28080        0.23250
H         -0.34890        2.86320       -0.68710
H         -0.73100        2.84040        1.04140
H          0.78980        2.15030        0.45840
N          1.27440       -0.02550        0.04080
C          1.94210        0.16610       -1.22820
H          1.30650        0.76380       -1.88320
C          3.26350        0.89740       -0.97110
H          3.85140        0.97410       -1.88760
O          4.06870        0.20420       -0.04480
C          3.38510        0.01100        1.17400
H          4.07370       -0.52990        1.82550
C          2.09450       -0.78550        0.95550
H          1.56110       -0.90530        1.89950
H          2.37820       -1.77680        0.56700
H          3.14330        0.98560        1.62490
H          3.04990        1.90850       -0.59050
H          2.16170       -0.79330       -1.72990
C          0.01790       -2.76120       -0.22810
H         -0.64160       -3.54630       -0.59250
H          0.84230       -2.65960       -0.93010
H          0.42000       -3.08190        0.73330
H         -2.61390       -2.49820       -0.14690
H         -4.85950       -0.04050       -0.89340
H         -4.85180       -0.05700        0.87460
H         -4.72100       -1.56920       -0.02740
