34
-44.16662223
C         -0.14500       -2.82680       -0.26340
C         -0.96410       -1.57620       -0.11370
C         -2.34740       -1.68260       -0.08730
C         -3.16050       -0.56760       -0.00440
C         -2.60750        0.70070        0.06370
C         -1.21190        0.82740        0.08890
C         -0.39220       -0.30470       -0.00610
N          1.00390       -0.02430        0.03500
C          1.84570       -0.75840        0.95120
C          3.07270        0.09880        1.26910
C          3.83080        0.40000       -0.02110
C          2.89650        1.07340       -1.02300
C          1.64990        0.21470       -1.23860
H          0.94280        0.72980       -1.89230
H          1.94700       -0.72960       -1.73040
H          3.40610        1.22560       -1.97620
H          2.59570        2.05040       -0.63930
H          4.69020        1.04150        0.18420
H          4.20380       -0.53550       -0.44590
H          3.71700       -0.42750        1.97560
H          2.75000        1.03400        1.73090
H          1.27480       -0.96040        1.86050
H          2.19820       -1.71800        0.53780
N         -0.63080        2.09760        0.15130
H          0.35490        2.01160        0.37320
H         -1.11420        2.72180        0.78300
N         -3.40230        1.84690        0.19040
H         -3.03500        2.64280       -0.31260
H         -4.37320        1.67930       -0.03280
H         -4.23580       -0.67890       -0.00390
H         -2.80180       -2.66060       -0.15690
H          0.27930       -3.13570        0.69230
H          0.66880       -2.68210       -0.97040
H         -0.77230       -3.63760       -0.62830
