# ORCA input file
# -53.18339675
! wB97X-D3 def2-SVP Opt
* xyz 0 1
   C       -4.09910        -3.11050        -0.04480
   C       -3.53980        -1.72290        -0.06900
   C       -2.44030        -1.41180        -0.86200
   C       -1.92000        -0.13480        -0.88920
   C       -2.51470         0.87980        -0.13260
   C       -3.64760         0.58280         0.63110
   C       -4.13190        -0.70610         0.67670
   H       -4.99250        -0.93110         1.29000
   H       -4.10730         1.37200         1.20590
   N       -2.12740         2.20940        -0.20410
   N       -0.97280         2.61270        -0.28260
   C        0.17810         1.87030        -0.07820
   C        1.26240         2.07140        -0.93870
   C        2.46510         1.44550        -0.69680
   C        2.64090         0.64680         0.43120
   C        1.57190         0.48360         1.30980
   C        0.35070         1.07670         1.05960
   H       -0.46900         0.95430         1.75320
   H        1.69620        -0.10270         2.21120
   C        3.93530        -0.07610         0.65500
   H        4.78320         0.48790         0.26620
   C        3.94520        -1.45030        -0.02010
   O        4.91790        -1.92330        -0.52800
   O        2.78130        -2.11220         0.01810
   H        2.07700        -1.58180         0.42580
   H        4.10120        -0.25170         1.72190
   H        3.28880         1.58230        -1.38160
   H        1.12780         2.69570        -1.80830
   H       -1.07670         0.09540        -1.52540
   H       -1.98060        -2.18380        -1.46230
   H       -4.49780        -3.35100         0.93810
   H       -3.33890        -3.84160        -0.30940
   H       -4.91340        -3.19400        -0.76560
*
