23
-38.70189215
C         -4.08630       -0.21600        0.60900
C         -2.64860       -0.23560        0.19390
C         -1.89310        0.91840        0.14300
C         -0.53810        0.90140       -0.21620
C          0.06350       -0.31360       -0.59100
C         -0.71080       -1.46930       -0.54960
C         -2.03180       -1.43790       -0.15420
H         -2.60250       -2.35430       -0.12090
H         -0.25490       -2.40850       -0.82460
C          1.48960       -0.42440       -1.03710
H          1.58730       -1.23920       -1.75490
H          1.84980        0.50450       -1.47980
C          2.34800       -0.78220        0.18900
O          2.64110       -1.91340        0.45200
O          2.70960        0.24480        0.93930
H          2.36480        1.10100        0.58700
C          0.16780        2.17390       -0.18060
O          1.37000        2.34190       -0.11770
H         -0.50240        3.05170       -0.19510
H         -2.34300        1.86440        0.41090
H         -4.70670       -0.69200       -0.14850
H         -4.43650        0.80150        0.76030
H         -4.21490       -0.76900        1.53870
