22
-41.07890322
C         -0.61940       -2.11550        0.48930
C         -0.13120       -0.70300        0.42240
C          1.19470       -0.40790        0.11370
C          1.64680        0.91290        0.03240
C          0.76070        1.96240        0.26700
C         -0.55010        1.68110        0.58710
C         -0.99760        0.36770        0.67530
C         -2.44800        0.12320        1.01220
H         -2.57220       -0.79700        1.57950
C         -3.20580        0.00820       -0.29470
O         -3.40240       -1.00960       -0.89970
O         -3.61270        1.20300       -0.72870
H         -4.06150        1.12610       -1.58570
H         -2.84590        0.96990        1.56990
H         -1.24160        2.48960        0.76960
H          1.11210        2.98030        0.19820
C          2.99510        1.19450       -0.28800
N          4.08320        1.44500       -0.54580
Cl         2.34830       -1.66410       -0.18700
H         -0.84630       -2.38750        1.52020
H          0.13530       -2.79990        0.11610
H         -1.52340       -2.23260       -0.10380
